[General]
network = ChaoticNetwork
sim-time-limit = 50s
output-vector-file = results.vec
output-scalar-file = results.sca
